LTspice 24.1.1 for Windows
Circuit: C:\Users\Mikke\OneDrive - Aalborg Universitet\Dokumenter\LTspice\Filter\MFB-Filter.net
Start Time: Wed Mar 26 14:56:50 2025
solver = Normal
Maximum thread count: 16
tnom = 27
temp = 27
method = modified trap
Direct Newton iteration failed to find .op point.  (Use ".option noopiter" to skip.)
Starting Gmin stepping
Gmin = 10
Gmin = 1.07374
vernier = 0.5
vernier = 0.25
vernier = 0.125
vernier = 0.0625
Gmin = 1.15289
vernier = 0.03125
Gmin = 1.0585
vernier = 0.015625
vernier = 0.0208333
vernier = 0.0104167
Gmin = 1.04074
vernier = 0.00520833
vernier = 0.00694444
vernier = 0.00347222
Gmin = 1.03131
vernier = 0.00462963
vernier = 0.00231481
Gmin = 1.02447
vernier = 0.00308642
vernier = 0.00154321
Gmin = 1.01954
vernier = 0.00205761
vernier = 0.00102881
Gmin = 1.01627
vernier = 0.00137174
vernier = 0.00068587
Gmin = 1.01375
vernier = 0.000914493
Gmin = 1.01172
vernier = 0.00121932
vernier = 0.000609662
vernier = 0.000812882
Gmin = 1.01031
vernier = 0.000406441
vernier = 0.000541921
Gmin = 1.00946
vernier = 0.000722562
vernier = 0.000541921
vernier = 0.000406441
Gmin = 1.00864
vernier = 0.000541921
vernier = 0.000406441
Gmin = 1.00782
vernier = 0.000541921
vernier = 0.000406441
Gmin = 0
Gmin stepping failed

Starting source stepping with srcstepmethod=0
Source Step = 3.0303%
Source Step = 33.3333%
Source Step = 63.6364%
Source Step = 93.9394%
Source stepping succeeded in finding the operating point.

Total elapsed time: 2.204 seconds.

Files loaded:
C:\Users\Mikke\OneDrive - Aalborg Universitet\Dokumenter\LTspice\Filter\MFB-Filter.net
C:\Users\Mikke\AppData\Local\LTspice\lib\sub\ADI.lib

